Version 4
SHEET 1 2832 1136
WIRE 64 48 -192 48
WIRE 304 64 288 64
WIRE 480 64 368 64
WIRE -992 80 -1072 80
WIRE -848 80 -912 80
WIRE -736 80 -848 80
WIRE 288 112 288 64
WIRE 352 112 288 112
WIRE 480 112 480 64
WIRE 480 112 432 112
WIRE 816 112 816 96
WIRE -192 128 -192 48
WIRE -176 128 -192 128
WIRE 64 144 64 48
WIRE 64 144 -112 144
WIRE 160 144 64 144
WIRE -240 160 -256 160
WIRE -176 160 -240 160
WIRE 160 160 160 144
WIRE 288 160 288 112
WIRE 288 160 240 160
WIRE 480 192 480 112
WIRE 576 192 480 192
WIRE 704 192 576 192
WIRE 816 192 816 176
WIRE 816 192 784 192
WIRE 896 192 816 192
WIRE 288 208 288 160
WIRE 304 208 288 208
WIRE 480 208 480 192
WIRE 480 208 464 208
WIRE 816 208 816 192
WIRE -1072 240 -1072 80
WIRE 304 240 208 240
WIRE 48 272 -128 272
WIRE 80 272 48 272
WIRE 160 272 80 272
WIRE 288 272 240 272
WIRE 304 272 288 272
WIRE 480 272 464 272
WIRE -912 288 -1056 288
WIRE 480 288 480 272
WIRE 592 288 480 288
WIRE 704 288 592 288
WIRE 816 288 816 272
WIRE 816 288 784 288
WIRE 896 288 816 288
WIRE 816 304 816 288
WIRE -1056 320 -1056 288
WIRE 208 336 208 240
WIRE -128 352 -128 272
WIRE -96 352 -128 352
WIRE 80 368 80 272
WIRE 80 368 -32 368
WIRE 288 368 288 272
WIRE 352 368 288 368
WIRE 480 368 480 288
WIRE 480 368 432 368
WIRE -240 384 -256 384
WIRE -96 384 -240 384
WIRE 816 384 816 368
WIRE 288 416 288 368
WIRE 304 416 288 416
WIRE 480 416 480 368
WIRE 480 416 368 416
WIRE -1056 432 -1056 400
WIRE 208 496 208 416
WIRE -480 544 -480 512
WIRE -352 544 -352 512
WIRE 1760 624 1744 624
WIRE 1792 624 1760 624
WIRE 1856 624 1792 624
WIRE 1872 624 1856 624
WIRE 1424 640 1232 640
WIRE 1456 640 1424 640
WIRE 672 656 480 656
WIRE 704 656 672 656
WIRE 1040 656 992 656
WIRE 1088 656 1040 656
WIRE 1120 656 1088 656
WIRE 1232 656 1232 640
WIRE 1792 656 1792 624
WIRE 1872 656 1872 624
WIRE 480 672 480 656
WIRE 1040 672 1040 656
WIRE 1120 672 1120 656
WIRE 1760 688 1760 624
WIRE 1760 688 1744 688
WIRE 1424 736 1424 640
WIRE 1456 736 1424 736
WIRE 1872 736 1872 720
WIRE 672 752 672 656
WIRE 704 752 672 752
WIRE 1040 752 1040 736
WIRE 1040 752 992 752
WIRE 1120 752 1120 736
WIRE 1232 752 1232 736
WIRE 1792 752 1792 720
WIRE 1792 752 1744 752
WIRE 480 768 480 752
WIRE 1600 832 1600 800
WIRE 848 848 848 816
FLAG 1232 752 0
FLAG 1872 736 0
FLAG 1600 832 0
FLAG 1856 624 5V
FLAG 480 768 0
FLAG 1120 752 0
FLAG 848 848 0
FLAG 1088 656 2.5V
FLAG 336 320 0
FLAG 576 192 V_outADCdriver
FLAG 592 288 V_outADCdriverInv
FLAG 816 96 0
FLAG 816 384 0
FLAG 896 192 V_ADCin+
FLAG 896 288 V_ADCin-
FLAG 336 160 5V
FLAG -144 112 5V
FLAG -144 176 0
FLAG -64 336 5V
FLAG -352 544 0
FLAG 208 496 0
FLAG 48 272 Buffer+
FLAG -64 400 0
FLAG -352 432 Vin+
FLAG -480 432 Vin-
FLAG -848 240 0
FLAG -1072 240 0
FLAG -240 384 Vin+
FLAG -1056 432 0
FLAG -240 160 Vin-
FLAG -1216 816 0
FLAG -1216 656 0
FLAG -480 544 0
FLAG 64 144 Buffer-
SYMBOL voltage 1232 640 R0
WINDOW 123 0 0 Left 2
WINDOW 39 0 0 Left 2
SYMATTR InstName V2
SYMATTR Value 9
SYMBOL cap 1856 656 R0
SYMATTR InstName C3
SYMATTR Value 10µ
SYMBOL cap 1776 656 R0
SYMATTR InstName C4
SYMATTR Value .01µ
SYMBOL PowerProducts\\LT1763-5 1600 688 R0
SYMATTR InstName U1
SYMBOL voltage 480 656 R0
WINDOW 123 0 0 Left 2
WINDOW 39 0 0 Left 2
SYMATTR InstName V3
SYMATTR Value 9
SYMBOL cap 1104 672 R0
SYMATTR InstName C5
SYMATTR Value 10µ
SYMBOL cap 1024 672 R0
SYMATTR InstName C6
SYMATTR Value .01µ
SYMBOL res 448 96 R90
WINDOW 0 0 56 VBottom 2
WINDOW 3 32 56 VTop 2
SYMATTR InstName R1
SYMATTR Value {Rfilt}
SYMBOL res 448 352 R90
WINDOW 0 0 56 VBottom 2
WINDOW 3 32 56 VTop 2
SYMATTR InstName R4
SYMATTR Value {Rfilt}
SYMBOL Opamps\\LTC6362 368 240 R0
WINDOW 0 -22 -17 Left 2
WINDOW 3 -24 8 Left 2
SYMATTR InstName ADC-Driver
SYMBOL res 800 176 R90
WINDOW 0 0 56 VBottom 2
WINDOW 3 32 56 VTop 2
SYMATTR InstName R5
SYMATTR Value 24.9
SYMBOL res 800 272 R90
WINDOW 0 0 56 VBottom 2
WINDOW 3 32 56 VTop 2
SYMATTR InstName R6
SYMATTR Value 24.9
SYMBOL cap 800 208 R0
SYMATTR InstName C7
SYMATTR Value 470p
SYMBOL cap 800 112 R0
SYMATTR InstName C8
SYMATTR Value 680p
SYMBOL cap 800 304 R0
SYMATTR InstName C9
SYMATTR Value 680p
SYMBOL cap 368 400 R90
WINDOW 0 0 32 VBottom 2
WINDOW 3 32 32 VTop 2
SYMATTR InstName C10
SYMATTR Value 56p
SYMBOL cap 368 48 R90
WINDOW 0 0 32 VBottom 2
WINDOW 3 32 32 VTop 2
SYMATTR InstName C11
SYMATTR Value 56p
SYMBOL voltage -352 416 R0
WINDOW 123 24 124 Left 2
WINDOW 39 0 0 Left 2
SYMATTR Value2 AC 1
SYMATTR InstName V4
SYMATTR Value 2.5
SYMBOL PowerProducts\\LT1761-2.5 848 704 R0
SYMATTR InstName U4
SYMBOL res 256 256 R90
WINDOW 0 6 82 VBottom 2
WINDOW 3 32 56 VTop 2
SYMATTR InstName R3
SYMATTR Value {Rfilt}
SYMBOL res 256 144 R90
WINDOW 0 0 56 VBottom 2
WINDOW 3 32 56 VTop 2
SYMATTR InstName R7
SYMATTR Value {Rfilt}
SYMBOL Opamps\\LT6204 -144 144 R0
SYMATTR InstName U2
SYMBOL Opamps\\LT6204 -64 368 R0
SYMATTR InstName U3
SYMBOL voltage 208 320 R0
WINDOW 123 0 0 Left 0
WINDOW 39 0 0 Left 0
SYMATTR InstName V7
SYMATTR Value 2.5
SYMBOL voltage -1216 560 R0
WINDOW 123 0 0 Left 0
WINDOW 39 0 0 Left 0
SYMATTR InstName V5
SYMATTR Value PWL(5u 2 10u 2.4 15u 2.4 20u 2.5 25u 2.5 30u -2 35u -2 40u -2.5)
SYMBOL voltage -1216 720 R0
WINDOW 123 0 0 Left 0
WINDOW 39 0 0 Left 0
SYMATTR InstName V9
SYMATTR Value PWL(5u 0 10u 3 15u 3 20u 4.5 25u 4.5 30u 4.75 35u 4.75 40u 5)
SYMBOL current -992 80 R270
WINDOW 0 32 40 VTop 2
WINDOW 3 55 39 VTop 2
WINDOW 123 0 0 Left 0
WINDOW 39 0 0 Left 0
SYMATTR InstName I1
SYMATTR Value SINE(0 0.003 50k)
SYMBOL res -864 64 R0
SYMATTR InstName R2
SYMATTR Value 820
SYMBOL voltage -848 144 R0
WINDOW 123 24 124 Left 2
WINDOW 39 0 0 Left 0
SYMATTR Value2 AC 1V
SYMATTR InstName V10
SYMATTR Value SINE(2.5 0 50k)
SYMBOL voltage -1056 304 R0
WINDOW 123 24 124 Left 2
WINDOW 39 0 0 Left 2
SYMATTR InstName V11
SYMATTR Value 2.5
SYMBOL voltage -480 416 R0
WINDOW 123 24 124 Left 2
WINDOW 39 0 0 Left 2
SYMATTR InstName V6
SYMATTR Value 2.5
TEXT -192 664 Left 2 ;.tran 0 0.00005 0
TEXT -176 600 Left 2 !.ac dec 1000 10k 10Meg
TEXT -440 -56 Left 4 ;Simulierte Ausgangsspannung\nStromsensor von 0-5V
TEXT -192 704 Left 2 !.param Rfilt=1k
